test/data/deprecated/b6gic_nerc.json


{
  "bus": {
    "4": {
      "lat": 34.310437,
      "gmd_baseMVA": 100,
      "zone": 1,
      "gmd_k": 0.001,
      "bus_i": 4,
      "lon": -86.365765,
      "bus_type": 1,
      "name": "bus4",
      "sid": 2,
      "gs": 0,
      "vmax": 1.3,
      "bs": 0,
      "sub": 2,
      "area": 1,
      "vmin": 0.7,
      "index": 4,
      "nid": 4,
      "va": -0,
      "gmd_neu_bus": null,
      "gmd_gs": 0,
      "vm": 1.1,
      "gmd_bus": 7,
      "base_kv": 500,
      "type": "bus"
    },
    "1": {
      "lat": 33.613499,
      "gmd_baseMVA": 100,
      "zone": 1,
      "gmd_k": 0.001,
      "bus_i": 1,
      "lon": -87.373673,
      "bus_type": 1,
      "name": "bus1",
      "sid": 1,
      "gs": 0,
      "vmax": 1.3,
      "bs": 0,
      "sub": 1,
      "area": 1,
      "vmin": 0.7,
      "index": 1,
      "nid": 1,
      "va": -0,
      "gmd_neu_bus": null,
      "gmd_gs": 0,
      "vm": 1.1,
      "gmd_bus": 4,
      "base_kv": 20,
      "type": "bus"
    },
    "5": {
      "lat": 33.955058,
      "gmd_baseMVA": 100,
      "zone": 1,
      "gmd_k": 0.001,
      "bus_i": 5,
      "lon": -84.679354,
      "bus_type": 1,
      "name": "bus5",
      "sid": 3,
      "gs": 0,
      "vmax": 1.3,
      "bs": 0,
      "sub": 3,
      "area": 1,
      "vmin": 0.7,
      "index": 5,
      "nid": 5,
      "va": -0,
      "gmd_neu_bus": null,
      "gmd_gs": 0,
      "vm": 1.1,
      "gmd_bus": 8,
      "base_kv": 500,
      "type": "bus"
    },
    "2": {
      "lat": 33.613499,
      "gmd_baseMVA": 100,
      "zone": 1,
      "gmd_k": 0.001,
      "bus_i": 2,
      "lon": -87.373673,
      "bus_type": 1,
      "name": "bus2",
      "sid": 1,
      "gs": 0,
      "vmax": 1.3,
      "bs": 0,
      "sub": 1,
      "area": 1,
      "vmin": 0.7,
      "index": 2,
      "nid": 2,
      "va": -0,
      "gmd_neu_bus": null,
      "gmd_gs": 0,
      "vm": 1.1,
      "gmd_bus": 5,
      "base_kv": 345,
      "type": "bus"
    },
    "6": {
      "lat": 33.955058,
      "gmd_baseMVA": 100,
      "zone": 1,
      "gmd_k": 0.001,
      "bus_i": 6,
      "lon": -84.679354,
      "bus_type": 3,
      "name": "bus6",
      "sid": 3,
      "gs": 0,
      "vmax": 1,
      "bs": 0,
      "sub": 3,
      "area": 1,
      "vmin": 0.7,
      "index": 6,
      "nid": 6,
      "va": -0,
      "gmd_neu_bus": null,
      "gmd_gs": 0,
      "vm": 1.1,
      "gmd_bus": 9,
      "base_kv": 20,
      "type": "bus"
    },
    "3": {
      "lat": 34.310437,
      "gmd_baseMVA": 100,
      "zone": 1,
      "gmd_k": 0.001,
      "bus_i": 3,
      "lon": -86.365765,
      "bus_type": 1,
      "name": "bus3",
      "sid": 2,
      "gs": 0,
      "vmax": 1.3,
      "bs": 0,
      "sub": 2,
      "area": 1,
      "vmin": 0.7,
      "index": 3,
      "nid": 3,
      "va": -0,
      "gmd_neu_bus": null,
      "gmd_gs": 0,
      "vm": 1.1,
      "gmd_bus": 6,
      "base_kv": 345,
      "type": "bus"
    }
  },
  "name": "b6gic_nerc",
  "dcline": {
    
  },
  "branch": {
    "4": {
      "gmd_br": 5,
      "br_r": 0.00296,
      "rate_a": 9000,
      "data": {
        
      },
      "shift": 0,
      "lo_bus": 3,
      "rate_b": 0,
      "name": "br23",
      "dist_e_km": 93.15699811884,
      "br_x": 0.07,
      "rate_c": 0,
      "len_km": 121.05562183044,
      "g_to": 0,
      "br_rdc": 0.00296,
      "g_fr": 0,
      "b_fr": 0.05,
      "f_bus": 2,
      "baseMVA": 100,
      "gmd_vdc": 93.15699811884,
      "sub": null,
      "br_status": 1,
      "hi_bus": 2,
      "t_bus": 3,
      "gmd_r_Ohms": 3.525,
      "index": 4,
      "b_to": 0.05,
      "angmin": -30,
      "angmax": 30,
      "tap": 1,
      "type": "line",
      "dist_n_km": 77.30612704205
    },
    "1": {
      "br_r": 0.0001,
      "rate_a": 9000,
      "data": {
        
      },
      "shift": 0,
      "gmd_k": 1.8,
      "lo_bus": 1,
      "rate_b": 0,
      "name": "T1",
      "br_x": 0.004,
      "rate_c": 0,
      "len_km": 0,
      "g_to": 0,
      "br_rdc": 0.0001,
      "gmd_br_hi": 1,
      "g_fr": 0,
      "b_fr": 0,
      "f_bus": 2,
      "baseMVA": 100,
      "gmd_vdc": 0,
      "sub": 1,
      "br_status": 1,
      "config": "gwye-delta",
      "hi_bus": 2,
      "rdc_hi": 0.5,
      "t_bus": 1,
      "b_to": 0,
      "index": 1,
      "dc_brid": null,
      "angmin": -30,
      "angmax": 30,
      "rdc_lo": null,
      "gmd_br_lo": null,
      "tap": 1,
      "type": "xf"
    },
    "5": {
      "gmd_br": 6,
      "br_r": 0.00187,
      "rate_a": 9000,
      "data": {
        
      },
      "shift": 0,
      "lo_bus": 5,
      "rate_b": 0,
      "name": "br45",
      "dist_e_km": 155.55621025547,
      "br_x": 0.07,
      "rate_c": 0,
      "len_km": 160.4734287131,
      "g_to": 0,
      "br_rdc": 0.00187,
      "g_fr": 0,
      "b_fr": 0.05,
      "f_bus": 4,
      "baseMVA": 100,
      "gmd_vdc": 155.55621025547,
      "sub": null,
      "br_status": 1,
      "hi_bus": 4,
      "t_bus": 5,
      "gmd_r_Ohms": 4.665,
      "index": 5,
      "b_to": 0.05,
      "angmin": -30,
      "angmax": 30,
      "tap": 1,
      "type": "line",
      "dist_n_km": -39.420638933119
    },
    "2": {
      "br_r": 0.0001,
      "gmd_br_series": 2,
      "rate_a": 9000,
      "data": {
        
      },
      "shift": 0,
      "gmd_k": 1.8,
      "lo_bus": 3,
      "rate_b": 0,
      "name": "T2",
      "dc_brid_hi": 2,
      "rdc_series": null,
      "br_x": 0.004,
      "rate_c": 0,
      "len_km": 0,
      "g_to": 0,
      "br_rdc": 0.0001,
      "g_fr": 0,
      "b_fr": 0,
      "f_bus": 3,
      "baseMVA": 100,
      "gmd_vdc": 0,
      "sub": 2,
      "br_status": 1,
      "config": "gwye-gwye-auto",
      "dc_brid_lo": 3,
      "hi_bus": 4,
      "rdc_hi": 0.2,
      "t_bus": 4,
      "b_to": 0,
      "index": 2,
      "gmd_br_common": 3,
      "dc_brid": null,
      "angmin": -30,
      "angmax": 30,
      "rdc_lo": 0.2,
      "tap": 1,
      "rdc_common": null,
      "type": "xf"
    },
    "3": {
      "br_r": 0.0001,
      "rate_a": 9000,
      "data": {
        
      },
      "shift": 0,
      "gmd_k": 1.8,
      "lo_bus": 6,
      "rate_b": 0,
      "name": "T3",
      "br_x": 0.004,
      "rate_c": 0,
      "len_km": 0,
      "g_to": 0,
      "br_rdc": 0.0001,
      "gmd_br_hi": 4,
      "g_fr": 0,
      "b_fr": 0,
      "f_bus": 5,
      "baseMVA": 100,
      "gmd_vdc": 0,
      "sub": 3,
      "br_status": 1,
      "config": "gwye-delta",
      "hi_bus": 5,
      "rdc_hi": 0.5,
      "t_bus": 6,
      "b_to": 0,
      "index": 3,
      "dc_brid": null,
      "angmin": -30,
      "angmax": 30,
      "rdc_lo": null,
      "gmd_br_lo": null,
      "tap": 1,
      "type": "xf"
    }
  },
  "gen": {
    "1": {
      "apf": 0,
      "qc1max": 0,
      "pg": 170,
      "model": 2,
      "shutdown": 0,
      "startup": 0,
      "qc2max": 0,
      "ramp_agc": 0,
      "name": "gen2_cost",
      "qg": 0,
      "gen_bus": 6,
      "pmax": 2000,
      "mbase": 100,
      "vg": 1.1,
      "pc2": 0,
      "index": 1,
      "cost": [
        0.085,
        1.2,
        0
      ],
      "gen_status": 1,
      "qmax": 2000,
      "qc2min": 0,
      "qc1min": 0,
      "qmin": -2000,
      "pc1": 0,
      "ramp_q": -1000,
      "ramp_30": 0,
      "type": "gen",
      "pmin": 0,
      "ncost": 3
    }
  },
  "gmd_branch": {
    "4": {
      "br_r": 0.16666666666667,
      "data": {
        
      },
      "name": "dc_T3_hi",
      "parent_index": 3,
      "br_v": 0,
      "len_km": 0,
      "f_bus": 8,
      "br_status": 1,
      "t_bus": 3,
      "parent_name": "T3",
      "index": 4,
      "type": "gwye winding high-side"
    },
    "1": {
      "br_r": 0.16666666666667,
      "data": {
        
      },
      "name": "dc_T1_hi",
      "parent_index": 1,
      "br_v": 0,
      "len_km": 0,
      "f_bus": 5,
      "br_status": 1,
      "t_bus": 1,
      "parent_name": "T1",
      "index": 1,
      "type": "gwye winding high-side"
    },
    "5": {
      "br_r": 1.17438,
      "data": {
        
      },
      "name": "dc_br23",
      "parent_index": 4,
      "br_v": 93.15699811884,
      "len_km": 121.05562183044,
      "f_bus": 5,
      "br_status": 1,
      "t_bus": 6,
      "parent_name": "br23",
      "index": 5,
      "type": "line"
    },
    "2": {
      "br_r": 0.066666666666667,
      "data": {
        
      },
      "name": "dc_T2_series",
      "parent_index": 2,
      "br_v": 0,
      "len_km": 0,
      "f_bus": 6,
      "br_status": 1,
      "t_bus": 7,
      "parent_name": "T2",
      "index": 2,
      "type": "gwye auto series winding (high)"
    },
    "6": {
      "br_r": 1.5583333333333,
      "data": {
        
      },
      "name": "dc_br45",
      "parent_index": 5,
      "br_v": 155.55621025547,
      "len_km": 160.4734287131,
      "f_bus": 7,
      "br_status": 1,
      "t_bus": 8,
      "parent_name": "br45",
      "index": 6,
      "type": "line"
    },
    "3": {
      "br_r": 0.066666666666667,
      "data": {
        
      },
      "name": "dc_T2_common",
      "parent_index": 2,
      "br_v": 0,
      "len_km": 0,
      "f_bus": 6,
      "br_status": 1,
      "t_bus": 2,
      "parent_name": "T2",
      "index": 3,
      "type": "gwye auto common winding (low)"
    }
  },
  "multinetwork": false,
  "version": "nestay-0.1",
  "baseMVA": 100,
  "sub": {
    "1": {
      "lat": 33.613499,
      "name": "sub1",
      "bus_i": 1,
      "gmd_rs_Ohms": 0.2,
      "gmd_bus": 1,
      "dc_bus_Factory": null,
      "sid": 1,
      "type": "sub",
      "index": 1,
      "lon": -87.373673
    },
    "2": {
      "lat": 34.310437,
      "name": "sub2",
      "bus_i": 2,
      "gmd_rs_Ohms": 0.2,
      "gmd_bus": 2,
      "dc_bus_Factory": null,
      "sid": 2,
      "type": "sub",
      "index": 2,
      "lon": -86.365765
    },
    "3": {
      "lat": 33.955058,
      "name": "sub3",
      "bus_i": 3,
      "gmd_rs_Ohms": 0.2,
      "gmd_bus": 3,
      "dc_bus_Factory": null,
      "sid": 3,
      "type": "sub",
      "index": 3,
      "lon": -84.679354
    }
  },
  "area": {
    
  },
  "gmd_e_field_mag": 1,
  "gmd_e_field_dir": 90,
  "per_unit": false,
  "shunt": {
    
  },
  "gmd_bus": {
    "8": {
      "bus_i": 8,
      "g_gnd": 0,
      "name": "dc_bus5",
      "parent_index": 5,
      "parent_type": "bus",
      "index": 8,
      "parent_name": "bus5"
    },
    "4": {
      "bus_i": 4,
      "g_gnd": 0,
      "name": "dc_bus1",
      "parent_index": 1,
      "parent_type": "bus",
      "index": 4,
      "parent_name": "bus1"
    },
    "1": {
      "bus_i": 1,
      "g_gnd": 5,
      "name": "dc_sub1",
      "parent_index": 1,
      "parent_type": "sub",
      "index": 1,
      "parent_name": "sub1"
    },
    "5": {
      "bus_i": 5,
      "g_gnd": 0,
      "name": "dc_bus2",
      "parent_index": 2,
      "parent_type": "bus",
      "index": 5,
      "parent_name": "bus2"
    },
    "2": {
      "bus_i": 2,
      "g_gnd": 5,
      "name": "dc_sub2",
      "parent_index": 2,
      "parent_type": "sub",
      "index": 2,
      "parent_name": "sub2"
    },
    "6": {
      "bus_i": 6,
      "g_gnd": 0,
      "name": "dc_bus3",
      "parent_index": 3,
      "parent_type": "bus",
      "index": 6,
      "parent_name": "bus3"
    },
    "7": {
      "bus_i": 7,
      "g_gnd": 0,
      "name": "dc_bus4",
      "parent_index": 4,
      "parent_type": "bus",
      "index": 7,
      "parent_name": "bus4"
    },
    "9": {
      "bus_i": 9,
      "g_gnd": 0,
      "name": "dc_bus6",
      "parent_index": 6,
      "parent_type": "bus",
      "index": 9,
      "parent_name": "bus6"
    },
    "3": {
      "bus_i": 3,
      "g_gnd": 5,
      "name": "dc_sub3",
      "parent_index": 3,
      "parent_type": "sub",
      "index": 3,
      "parent_name": "sub3"
    }
  },
  "load": {
    "1": {
      "load_bus": 1,
      "status": 1,
      "qd": 20,
      "pd": 100,
      "index": 1
    }
  }
}

